Circuit: * D:\Google Drive\College\Chico State\Spring 2019 (LAST SEMSTER!)\CSCI 430\gitHub\SmartClock\electronics\levelShifter.asc

Limiting rise time of source v3 to 6.25e-006
Limiting fall time of source v3 to 6.25e-006
WARNING: Less than two connections to node -5V.  This node is used by V2.
Direct Newton iteration for .op point succeeded.

Date: Wed Mar 06 12:37:58 2019
Total elapsed time: 0.574 seconds.

tnom = 27
temp = 27
method = modified trap
totiter = 222952
traniter = 222936
tranpoints = 70553
accept = 55972
rejected = 14581
matrix size = 12
fillins = 0
solver = Normal
Matrix Compiler1: 320 bytes object code size  0.1/0.1/[0.1]
Matrix Compiler2:      63 opcodes  0.1/[0.1]/0.2

