Circuit: * D:\Google Drive\College\Chico State\Spring 2019 (LAST SEMSTER!)\CSCI 430\gitHub\SmartClock\levelShifter.asc

Limiting rise time of source v3 to 6.25e-006
Limiting fall time of source v3 to 6.25e-006
Direct Newton iteration for .op point succeeded.

Date: Mon Mar 04 17:00:04 2019
Total elapsed time: 0.423 seconds.

tnom = 27
temp = 27
method = modified trap
totiter = 211100
traniter = 211080
tranpoints = 66498
accept = 53107
rejected = 13391
matrix size = 10
fillins = 0
solver = Normal
Matrix Compiler1:      18 opcodes  0.2/[0.1]/0.1
Matrix Compiler2:      55 opcodes  0.1/[0.1]/0.1

